Version 4
SHEET 1 1124 680
WIRE 96 -976 32 -976
WIRE 112 -928 64 -928
WIRE -128 -912 -160 -912
WIRE -48 -912 -48 -976
WIRE 64 -912 64 -928
WIRE -48 -896 -48 -912
WIRE 32 -896 -48 -896
WIRE 96 -880 96 -976
WIRE 368 -880 96 -880
WIRE 32 -864 16 -864
WIRE 32 -848 32 -864
WIRE 368 -848 368 -880
WIRE 16 -816 16 -864
WIRE 16 -816 0 -816
WIRE -160 -736 -160 -912
WIRE -112 -736 -160 -736
WIRE -64 -736 -112 -736
WIRE 192 -736 -64 -736
WIRE -240 -720 -320 -720
WIRE -160 -720 -160 -736
WIRE -160 -720 -240 -720
WIRE 192 -720 192 -736
WIRE 48 -672 32 -672
WIRE 416 -672 336 -672
WIRE 416 -656 416 -672
WIRE -320 -592 -320 -720
WIRE 480 -592 416 -592
WIRE 608 -592 560 -592
WIRE 688 -592 608 -592
WIRE 736 -592 688 -592
WIRE 784 -592 736 -592
WIRE -160 -576 -160 -720
WIRE -64 -576 -64 -736
WIRE 48 -576 -64 -576
WIRE 416 -576 416 -592
WIRE 416 -576 336 -576
WIRE 608 -576 608 -592
WIRE 688 -560 688 -592
WIRE 784 -544 784 -592
WIRE 608 -496 560 -496
WIRE 688 -496 608 -496
WIRE 736 -496 736 -592
WIRE -64 -480 -64 -576
WIRE 48 -480 -64 -480
WIRE 368 -480 368 -720
WIRE 368 -480 336 -480
WIRE 416 -480 368 -480
WIRE 560 -480 560 -496
WIRE 560 -480 480 -480
WIRE 608 -480 608 -496
WIRE 400 -384 336 -384
WIRE 400 -336 400 -384
WIRE 160 -80 144 -80
WIRE -144 -48 -256 -48
WIRE -80 -48 -144 -48
WIRE -48 -48 -80 -48
WIRE 272 -32 192 -32
WIRE 384 -32 352 -32
WIRE 32 -16 32 -48
WIRE 64 -16 32 -16
WIRE 144 -16 144 -80
WIRE 160 -16 160 -32
WIRE 160 -16 144 -16
WIRE 384 -16 384 -32
WIRE 240 0 240 -80
WIRE 240 0 224 0
WIRE 160 16 128 16
WIRE 240 32 240 0
WIRE 416 32 240 32
WIRE 32 144 32 -16
WIRE 96 144 32 144
WIRE 544 144 352 144
WIRE 576 144 544 144
WIRE 688 144 576 144
WIRE -80 160 -80 144
WIRE 544 160 544 144
WIRE 32 192 32 144
WIRE 64 192 32 192
WIRE 416 192 416 32
WIRE -256 240 -256 -48
WIRE -144 240 -144 -48
WIRE 688 240 688 144
WIRE -80 256 -80 224
WIRE 64 256 64 192
WIRE 64 256 32 256
WIRE 96 256 64 256
WIRE 416 256 352 256
WIRE 448 256 416 256
WIRE 544 256 544 240
WIRE 544 256 512 256
WIRE 576 256 576 144
WIRE 688 256 688 240
WIRE 544 272 544 256
WIRE 576 272 576 256
WIRE -256 416 -256 320
WIRE -144 416 -144 320
WIRE -144 416 -256 416
WIRE -80 416 -80 384
WIRE -80 416 -144 416
WIRE 32 416 32 320
WIRE 32 416 -80 416
WIRE 224 416 224 304
WIRE 224 416 32 416
WIRE 544 416 544 352
WIRE 544 416 224 416
WIRE 576 416 576 320
WIRE 576 416 544 416
WIRE 688 416 688 320
WIRE 688 416 576 416
WIRE 224 432 224 416
FLAG 224 432 0
FLAG 384 -16 0
FLAG 192 32 0
FLAG 128 96 0
FLAG 400 -336 0
FLAG -160 -496 0
FLAG -32 -672 0
FLAG 608 -400 0
FLAG 736 -432 0
FLAG -112 -672 0
FLAG -320 -512 0
FLAG -112 -272 0
FLAG 192 -928 0
FLAG -80 -816 0
FLAG 784 -464 0
FLAG 64 -848 0
SYMBOL PowerProducts\\LT1118 224 208 R0
SYMATTR InstName U1
SYMBOL res 528 144 R0
SYMATTR InstName R1
SYMATTR Value 10k
SYMBOL res 528 256 R0
SYMATTR InstName R2
SYMATTR Value 10k
SYMBOL current -144 320 R180
WINDOW 0 24 80 Left 2
WINDOW 3 24 0 Left 2
WINDOW 123 0 0 Left 2
WINDOW 39 0 0 Left 2
SYMATTR InstName I1
SYMATTR Value PULSE(1000m 17m .5 1n 1n .5 1)
SYMBOL diode -96 160 R0
SYMATTR InstName D1
SYMBOL diode -96 256 R0
SYMATTR InstName D2
SYMBOL diode -96 320 R0
SYMATTR InstName D3
SYMBOL diode -96 80 R0
SYMATTR InstName D4
SYMBOL diode -96 16 R0
SYMATTR InstName D5
SYMBOL diode -96 -48 R0
SYMATTR InstName D6
SYMBOL res 672 224 R0
SYMATTR InstName R3
SYMATTR Value 100
SYMBOL cap 16 256 R0
SYMATTR InstName C1
SYMATTR Value 100µ
SYMBOL cap 560 256 R0
SYMATTR InstName C2
SYMATTR Value 10µ
SYMBOL Opamps\\LT1001 192 -64 R0
SYMATTR InstName U2
SYMBOL voltage 256 -32 R270
WINDOW 0 32 56 VTop 2
WINDOW 3 -32 56 VBottom 2
WINDOW 123 0 0 Left 2
WINDOW 39 0 0 Left 2
SYMATTR InstName V1
SYMATTR Value 10
SYMBOL voltage 128 0 R0
WINDOW 123 0 0 Left 2
WINDOW 39 0 0 Left 2
SYMATTR InstName V2
SYMATTR Value 2.7
SYMBOL res 160 -32 R90
WINDOW 0 0 56 VBottom 2
WINDOW 3 32 56 VTop 2
SYMATTR InstName R4
SYMATTR Value 10k
SYMBOL res 256 -96 R90
WINDOW 0 0 56 VBottom 2
WINDOW 3 32 56 VTop 2
SYMATTR InstName R5
SYMATTR Value 10k
SYMBOL res 48 -64 R90
WINDOW 0 0 56 VBottom 2
WINDOW 3 32 56 VTop 2
SYMATTR InstName R6
SYMATTR Value 1
SYMBOL res -240 336 R180
WINDOW 0 36 76 Left 2
WINDOW 3 36 40 Left 2
SYMATTR InstName R7
SYMATTR Value 100k
SYMBOL diode 512 240 R90
WINDOW 0 0 32 VBottom 2
WINDOW 3 32 32 VTop 2
SYMATTR InstName D7
SYMATTR Value 1N4148
SYMBOL diode 400 192 R0
SYMATTR InstName D8
SYMATTR Value 1N4148
SYMBOL PowerProducts\\LTC3103 192 -528 R0
SYMATTR InstName U3
SYMBOL cap 400 -656 R0
SYMATTR InstName C3
SYMATTR Value .02µ
SYMBOL ind 576 -608 R90
WINDOW 0 5 56 VBottom 2
WINDOW 3 32 56 VTop 2
SYMATTR InstName L1
SYMATTR Value 10µ
SYMBOL res 592 -592 R0
SYMATTR InstName R8
SYMATTR Value 1.78meg
SYMBOL res 592 -496 R0
SYMATTR InstName R9
SYMATTR Value 655k
SYMBOL cap 672 -560 R0
SYMATTR InstName C4
SYMATTR Value 12p
SYMBOL voltage -160 -592 R0
WINDOW 123 0 0 Left 2
WINDOW 39 0 0 Left 2
SYMATTR InstName V3
SYMATTR Value 7
SYMBOL cap 32 -688 R90
WINDOW 0 0 32 VBottom 2
WINDOW 3 32 32 VTop 2
SYMATTR InstName C5
SYMATTR Value 1µ
SYMBOL cap 720 -496 R0
SYMATTR InstName C6
SYMATTR Value 47µ
SYMBOL cap -128 -736 R0
SYMATTR InstName C7
SYMATTR Value 10µ
SYMBOL current -320 -512 R180
WINDOW 0 24 80 Left 2
WINDOW 3 24 0 Left 2
WINDOW 123 0 0 Left 2
WINDOW 39 0 0 Left 2
SYMATTR InstName I2
SYMATTR Value PULSE(200m 50m 3m 1n 1n 0.7 1)
SYMBOL diode -256 -400 R0
SYMATTR InstName D9
SYMBOL diode -256 -464 R0
SYMATTR InstName D10
SYMBOL diode -256 -528 R0
SYMATTR InstName D11
SYMBOL diode -256 -592 R0
SYMATTR InstName D12
SYMBOL diode -256 -656 R0
SYMATTR InstName D13
SYMBOL diode -256 -720 R0
SYMATTR InstName D14
SYMBOL diode -256 -336 R0
SYMATTR InstName D15
SYMBOL diode -240 -256 R270
WINDOW 0 32 32 VTop 2
WINDOW 3 0 32 VBottom 2
SYMATTR InstName D16
SYMBOL diode -176 -256 R270
WINDOW 0 32 32 VTop 2
WINDOW 3 0 32 VBottom 2
SYMATTR InstName D17
SYMBOL Opamps\\LT1001 64 -944 R0
SYMATTR InstName U4
SYMBOL res 48 -992 R90
WINDOW 0 0 56 VBottom 2
WINDOW 3 32 56 VTop 2
SYMATTR InstName R10
SYMATTR Value 10k
SYMBOL res -32 -928 R90
WINDOW 0 0 56 VBottom 2
WINDOW 3 32 56 VTop 2
SYMATTR InstName R11
SYMATTR Value 10k
SYMBOL voltage 96 -928 R270
WINDOW 0 32 56 VTop 2
WINDOW 3 -32 56 VBottom 2
WINDOW 123 0 0 Left 2
WINDOW 39 0 0 Left 2
SYMATTR InstName V4
SYMATTR Value 10
SYMBOL voltage 16 -816 R90
WINDOW 0 -32 56 VBottom 2
WINDOW 3 32 56 VTop 2
WINDOW 123 0 0 Left 2
WINDOW 39 0 0 Left 2
SYMATTR InstName V5
SYMATTR Value 3
SYMBOL diode 480 -496 R90
WINDOW 0 0 32 VBottom 2
WINDOW 3 32 32 VTop 2
SYMATTR InstName D18
SYMATTR Value 1N4148
SYMBOL diode 352 -784 R0
SYMATTR InstName D19
SYMATTR Value 1N4148
SYMBOL res 768 -560 R0
SYMATTR InstName R12
SYMATTR Value 200
TEXT -176 456 Left 2 !.tran 0 1 0
