Version 4
SHEET 1 1124 680
WIRE 160 -80 144 -80
WIRE -144 -48 -256 -48
WIRE -80 -48 -144 -48
WIRE -48 -48 -80 -48
WIRE 272 -32 192 -32
WIRE 384 -32 352 -32
WIRE 32 -16 32 -48
WIRE 64 -16 32 -16
WIRE 144 -16 144 -80
WIRE 160 -16 160 -32
WIRE 160 -16 144 -16
WIRE 384 -16 384 -32
WIRE 240 0 240 -80
WIRE 240 0 224 0
WIRE 160 16 128 16
WIRE 240 32 240 0
WIRE 416 32 240 32
WIRE 32 144 32 -16
WIRE 96 144 32 144
WIRE 544 144 352 144
WIRE 576 144 544 144
WIRE 688 144 576 144
WIRE -80 160 -80 144
WIRE 544 160 544 144
WIRE 32 192 32 144
WIRE 64 192 32 192
WIRE 416 192 416 32
WIRE -256 240 -256 -48
WIRE -144 240 -144 -48
WIRE 688 240 688 144
WIRE -80 256 -80 224
WIRE 64 256 64 192
WIRE 64 256 32 256
WIRE 96 256 64 256
WIRE 416 256 352 256
WIRE 448 256 416 256
WIRE 544 256 544 240
WIRE 544 256 512 256
WIRE 576 256 576 144
WIRE 688 256 688 240
WIRE 544 272 544 256
WIRE 576 272 576 256
WIRE -256 416 -256 320
WIRE -144 416 -144 320
WIRE -144 416 -256 416
WIRE -80 416 -80 384
WIRE -80 416 -144 416
WIRE 32 416 32 320
WIRE 32 416 -80 416
WIRE 224 416 224 304
WIRE 224 416 32 416
WIRE 544 416 544 352
WIRE 544 416 224 416
WIRE 576 416 576 320
WIRE 576 416 544 416
WIRE 688 416 688 320
WIRE 688 416 576 416
WIRE 224 432 224 416
FLAG 224 432 0
FLAG 384 -16 0
FLAG 192 32 0
FLAG 128 96 0
SYMBOL PowerProducts\\LT1118 224 208 R0
SYMATTR InstName U1
SYMBOL res 528 144 R0
SYMATTR InstName R1
SYMATTR Value 10k
SYMBOL res 528 256 R0
SYMATTR InstName R2
SYMATTR Value 10k
SYMBOL current -144 320 R180
WINDOW 0 24 80 Left 2
WINDOW 3 24 0 Left 2
WINDOW 123 0 0 Left 2
WINDOW 39 0 0 Left 2
SYMATTR InstName I1
SYMATTR Value PULSE(1000m 17m .5 1n 1n .5 1)
SYMBOL diode -96 160 R0
SYMATTR InstName D1
SYMBOL diode -96 256 R0
SYMATTR InstName D2
SYMBOL diode -96 320 R0
SYMATTR InstName D3
SYMBOL diode -96 80 R0
SYMATTR InstName D4
SYMBOL diode -96 16 R0
SYMATTR InstName D5
SYMBOL diode -96 -48 R0
SYMATTR InstName D6
SYMBOL res 672 224 R0
SYMATTR InstName R3
SYMATTR Value 100
SYMBOL cap 16 256 R0
SYMATTR InstName C1
SYMATTR Value 100µ
SYMBOL cap 560 256 R0
SYMATTR InstName C2
SYMATTR Value 10µ
SYMBOL Opamps\\LT1001 192 -64 R0
SYMATTR InstName U2
SYMBOL voltage 256 -32 R270
WINDOW 0 32 56 VTop 2
WINDOW 3 -32 56 VBottom 2
WINDOW 123 0 0 Left 2
WINDOW 39 0 0 Left 2
SYMATTR InstName V1
SYMATTR Value 10
SYMBOL voltage 128 0 R0
WINDOW 123 0 0 Left 2
WINDOW 39 0 0 Left 2
SYMATTR InstName V2
SYMATTR Value 2.7
SYMBOL res 160 -32 R90
WINDOW 0 0 56 VBottom 2
WINDOW 3 32 56 VTop 2
SYMATTR InstName R4
SYMATTR Value 10k
SYMBOL res 256 -96 R90
WINDOW 0 0 56 VBottom 2
WINDOW 3 32 56 VTop 2
SYMATTR InstName R5
SYMATTR Value 10k
SYMBOL res 48 -64 R90
WINDOW 0 0 56 VBottom 2
WINDOW 3 32 56 VTop 2
SYMATTR InstName R6
SYMATTR Value 1
SYMBOL res -240 336 R180
WINDOW 0 36 76 Left 2
WINDOW 3 36 40 Left 2
SYMATTR InstName R7
SYMATTR Value 100k
SYMBOL diode 512 240 R90
WINDOW 0 0 32 VBottom 2
WINDOW 3 32 32 VTop 2
SYMATTR InstName D7
SYMATTR Value 1N4148
SYMBOL diode 400 192 R0
SYMATTR InstName D8
SYMATTR Value 1N4148
TEXT -178 456 Left 2 !.tran 0 1 0
